
##########################################################################
#               Crystallographic Information Format file
#               Produced by PyCifRW module
#
#  This is a CIF file.  CIF has been adopted by the International
#  Union of Crystallography as the standard for data archiving and
#  transmission.
#
#  For information on this file format, follow the CIF links at
#  http://www.iucr.org
##########################################################################

data_0

loop_
  _atom_site_label
  _atom_site_fract_x
  _atom_site_fract_y
  _atom_site_fract_z
  _atom_site_type_symbol
         Ag1       0.7497431588380663  0.5000000000066777  0.0       Ag        
         Ag2       0.7497431588380663  0.0       0.5000000000066777  Ag        
         Ag3       0.5000000000066777  0.7497431588380663  0.0       Ag        
         Ag4       0.5000000000066777  4.876987808968527e-27         0.7497431588380663 Ag       
         Ag5       0.5000000000066777  0.0       0.25025684116193364           Ag       
         Ag6       0.5000000000066777  0.25025684116193364           3.657740856726362e-27        Ag       
         Ag7       2.4384939044841968e-27        0.7497431588380663  0.5000000000066777 Ag       
         Ag8       0.0       0.5000000000066777  0.7497431588380663  Ag        
         Ag9       0.0       0.5000000000066777  0.25025684116193364           Ag       
         Ag10      1.2192469522421385e-26        0.25025684116193364           0.5000000000066777 Ag       
         Ag11      0.25025684116193364           0.5000000000066777  0.0       Ag       
         Ag12      0.25025684116193364           4.876987808968527e-27         0.5000000000066777 Ag       
         S1        0.0       0.0       0.0       S         
         Br1       0.5000000000066777  0.5000000000066777  0.5000000000066777  Br
_cell_angle_alpha                       90.0
_cell_angle_beta                        90.0
_cell_angle_gamma                       90.0
_cell_length_a                          7.4800708165753
_cell_length_b                          7.4800708165753
_cell_length_c                          7.4800708165753
loop_
  _symmetry_equiv_pos_as_xyz
         'x, y, z' 
_symmetry_int_tables_number             1
_symmetry_space_group_name_H-M          'P 1'